28
Part[0, 2]Frag
O         -3.096000      -4.522000      -2.274000
C         -3.286000      -4.732000      -0.883000
H         -2.420000      -5.252000      -0.458000
N          2.487000       0.481000      -1.622000
C          1.478000       0.666000      -0.729000
H          0.743000      -1.629000      -0.701000
O         -3.448000      -3.460000      -0.296000
H         -2.673000       0.873000      -1.341000
O         -1.098000       1.784000       1.262000
C         -0.854000       2.579000       0.361000
N         -0.410000       2.243000      -0.886000
C          0.076000       0.933000      -1.336000
O          1.661000       0.620000       0.484000
H          2.338000       0.487000      -2.627000
H          0.181000       1.040000      -2.423000
H         -0.406000       2.992000      -1.570000
C         -1.152000      -2.595000      -0.545000
C         -3.073000      -1.187000      -0.864000
C         -2.550000      -2.463000      -0.588000
C         -0.860000      -0.243000      -1.061000
C         -2.241000      -0.097000      -1.128000
C         -0.326000      -1.497000      -0.780000
H         -0.620000      -3.837000      -0.226000
H         -4.455000      -1.055000      -0.857000
H          3.802000       0.019000      -1.191000
H         -1.010000       4.111000       0.582000
H         -4.583000      -5.530000      -0.666000
H         -2.889000      -5.723000      -3.029000
