176
The Molecule
C          2.728000      -4.211000      -1.707000
C          1.341000      -4.199000      -1.570000
C          0.758000      -3.949000      -0.327000
C          1.575000      -3.776000       0.797000
C          2.965000      -3.792000       0.659000
C          3.553000      -3.977000      -0.597000
H          3.177000      -4.405000      -2.674000
H          0.696000      -4.355000      -2.431000
H          5.515000      -4.388000       0.158000
Cl         0.868000      -3.511000       2.373000
H          3.580000      -3.659000       1.546000
C          5.063000      -3.952000      -0.749000
C         -1.152000      -2.595000      -0.545000
C         -2.550000      -2.463000      -0.588000
C         -3.073000      -1.187000      -0.864000
C         -2.241000      -0.097000      -1.128000
C         -0.860000      -0.243000      -1.061000
C         -0.326000      -1.497000      -0.780000
H         -6.000000      -7.679000      -0.573000
O         -3.448000      -3.460000      -0.296000
H          5.309000      -1.900000      -0.010000
H         -2.673000       0.873000      -1.341000
H          8.979000      -2.264000      -0.156000
H          0.743000      -1.629000      -0.701000
C         -4.896000       0.227000      -0.585000
C         -4.694000       0.777000       0.681000
C         -4.921000       2.131000       0.907000
C         -5.361000       2.959000      -0.133000
C         -5.702000       2.374000      -1.359000
C         -5.472000       1.015000      -1.587000
H          6.795000      -0.566000       0.935000
H         -4.272000       0.149000       1.459000
H         -4.708000       2.559000       1.879000
H          8.452000       4.049000      -0.090000
H         -6.106000       2.971000      -2.173000
Cl        -5.817000       0.332000      -3.161000
O         -0.620000      -3.837000      -0.226000
O         -4.455000      -1.055000      -0.857000
C          5.653000      -2.486000      -0.863000
C          7.194000      -2.621000      -0.890000
N          8.008000      -2.005000       0.002000
O          7.695000      -3.359000      -1.752000
C          7.818000      -0.934000       0.979000
C          10.161000     -0.124000       0.832000
C          8.811000       0.205000       0.676000
C          8.413000       1.487000       0.214000
C          9.453000       2.408000      -0.081000
C          10.801000      2.061000       0.042000
C          11.155000      0.798000       0.500000
H          10.466000     -1.093000       1.218000
H          13.054000      1.119000       0.404000
H          3.620000      -0.625000      -0.321000
O          9.216000       3.663000      -0.559000
H          11.547000      2.810000      -0.211000
O          12.453000      0.403000       0.664000
C          6.115000       0.971000      -0.661000
C          4.730000       1.148000      -0.715000
C          4.195000       2.319000      -0.164000
C          5.022000       3.248000       0.459000
C          6.388000       2.996000       0.585000
C          6.976000       1.844000       0.031000
H          6.566000       0.125000      -1.166000
C          3.802000       0.019000      -1.191000
H          3.132000       2.514000      -0.197000
H          4.584000       4.150000       0.883000
O          7.212000       3.885000       1.251000
H          6.685000       4.609000       1.626000
N          2.487000       0.481000      -1.622000
C          1.478000       0.666000      -0.729000
O          1.661000       0.620000       0.484000
C          0.076000       0.933000      -1.336000
N         -0.410000       2.243000      -0.886000
C         -0.854000       2.579000       0.361000
O         -1.098000       1.784000       1.262000
C         -1.010000       4.111000       0.582000
C         -0.533000       4.484000       1.997000
C          0.956000       4.166000       2.184000
O          1.831000       4.972000       1.861000
N          1.229000       2.950000       2.733000
N         -2.397000       4.524000       0.379000
C         -2.887000       4.725000      -0.867000
O         -2.192000       4.642000      -1.885000
C         -4.385000       5.109000      -1.005000
C         -5.367000       4.476000       0.032000
O         -5.029000       4.785000       1.374000
N         -4.506000       6.565000      -1.177000
C         -4.692000       7.550000      -0.270000
O         -4.936000       7.389000       0.936000
C         -4.557000       8.973000      -0.844000
N         -4.875000       8.985000      -2.276000
C         -6.305000       9.080000      -2.582000
C         -3.118000       9.506000      -0.640000
C         -2.581000       9.591000       0.803000
C         -1.109000       10.037000      0.772000
C         -3.415000       10.530000      1.689000
O          5.398000      -4.715000      -1.889000
C          4.373000      -0.813000      -2.358000
O          4.048000      -0.535000      -3.511000
N          5.242000      -1.836000      -2.106000
C          8.043000      -1.474000       2.397000
O          8.621000      -2.499000       2.677000
H          2.338000       0.487000      -2.627000
H          0.181000       1.040000      -2.423000
H         -0.406000       2.992000      -1.570000
H         -0.406000       4.651000      -0.153000
H         -0.659000       5.561000       2.135000
H         -1.138000       3.951000       2.737000
H          0.528000       2.218000       2.658000
H          2.191000       2.635000       2.675000
H         -3.064000       4.508000       1.151000
H         -4.659000       4.701000      -1.980000
H         -6.366000       4.875000      -0.204000
H         -5.061000       5.773000       1.447000
H         -4.337000       6.927000      -2.116000
H         -5.260000       9.591000      -0.266000
H         -4.370000       9.740000      -2.734000
H         -6.439000       9.128000      -3.667000
H         -6.820000       8.183000      -2.221000
H         -6.792000       9.958000      -2.126000
H         -2.440000       8.886000      -1.243000
H         -3.089000       10.517000     -1.077000
H         -2.620000       8.588000       1.247000
H         -1.010000       11.045000      0.346000
H         -0.688000       10.063000      1.784000
H         -0.493000       9.357000       0.172000
H         -4.438000       10.163000      1.823000
H         -2.965000       10.619000      2.685000
H         -3.462000       11.540000      1.256000
H          6.357000      -4.587000      -2.052000
H          5.526000      -2.326000      -2.951000
C         -4.583000      -5.530000      -0.666000
C         -3.286000      -4.732000      -0.883000
O         -3.096000      -4.522000      -2.274000
C         -2.889000      -5.723000      -3.029000
C         -4.184000      -6.536000      -2.979000
C         -4.534000      -6.807000      -1.518000
H         -2.420000      -5.252000      -0.458000
H         -4.758000      -8.318000      -3.510000
O         -4.790000      -6.020000       0.659000
H         -5.427000      -4.897000      -0.974000
O         -5.785000      -7.493000      -1.502000
H         -3.754000      -7.461000      -1.098000
H         -4.994000      -5.948000      -3.440000
O         -3.990000      -7.752000      -3.691000
C         -2.478000      -5.277000      -4.428000
H         -2.068000      -6.304000      -2.581000
H         -2.231000      -6.150000      -5.035000
H         -3.314000      -4.742000      -4.904000
O         -1.315000      -4.457000      -4.384000
C         -3.812000      -4.067000       3.517000
O         -3.779000      -4.938000       2.376000
C         -5.026000      -5.107000       1.709000
C         -6.049000      -5.730000       2.653000
C         -6.238000      -4.917000       3.952000
C         -4.837000      -4.627000       4.538000
H         -4.914000      -2.373000       2.673000
H         -3.867000      -1.965000       4.037000
H         -2.815000      -4.205000       3.958000
C         -3.952000      -2.590000       3.140000
O         -5.010000      -3.758000       5.664000
H         -4.438000      -5.594000       4.881000
N         -6.890000      -3.636000       3.610000
C         -7.066000      -5.738000       4.963000
H         -7.015000      -5.820000       2.138000
H         -5.705000      -6.744000       2.890000
H         -5.373000      -4.149000       1.306000
H         -3.141000      -2.323000       2.455000
H         -1.531000      -3.694000      -3.823000
H         -4.161000      -3.649000       6.118000
H         -6.894000      -3.032000       4.431000
H         -7.864000      -3.803000       3.361000
H         -6.575000      -6.686000       5.218000
H         -7.217000      -5.170000       5.887000
H         -8.050000      -5.975000       4.537000
O          7.509000      -0.637000       3.313000
H          7.713000      -0.993000       4.198000
