171
The Molecule
O         -3.511000      -4.653000      -1.006000
H         -2.875000      -5.102000      -1.555000
H         -3.264000      -4.868000      -0.138000
O          5.171000       2.867000      -4.433000
H          5.363000       3.197000      -5.279000
H          4.334000       2.465000      -4.356000
O          1.407000       3.633000       4.539000
H          2.335000       3.400000       4.589000
H          1.295000       4.473000       4.064000
O          4.639000      -0.696000       2.719000
H          3.806000      -0.465000       2.328000
H          4.914000      -1.472000       2.150000
O          3.288000      -2.542000       4.679000
H          2.775000      -3.049000       4.062000
H          3.837000      -2.038000       4.113000
O          6.505000      -2.063000      -1.610000
H          6.413000      -2.953000      -1.298000
H          6.678000      -2.048000      -2.591000
O          0.667000      -3.568000      -2.888000
H          0.124000      -3.428000      -3.719000
H          0.792000      -2.684000      -2.600000
O          2.310000       2.372000      -3.251000
H          1.399000       2.692000      -3.457000
H          2.319000       2.182000      -2.323000
O         -1.577000       5.928000      -1.631000
H         -2.108000       5.233000      -1.255000
H         -2.147000       6.692000      -1.804000
O          0.474000      -4.214000       0.227000
H         -0.394000      -4.564000       0.511000
H          0.503000      -3.771000      -0.582000
O         -4.993000      -0.195000       3.103000
H         -4.124000      -0.473000       2.688000
H         -5.671000      -0.271000       2.460000
O          0.820000       0.577000       4.206000
H          0.473000       1.451000       4.317000
H          1.278000       0.573000       3.347000
O          1.832000      -4.287000       2.736000
H          1.540000      -4.177000       1.847000
H          1.164000      -4.641000       3.313000
O          1.700000      -0.933000      -1.447000
H          1.674000       0.024000      -1.288000
H          2.659000      -1.205000      -1.405000
O          0.651000       5.574000       0.218000
H          0.485000       4.607000       0.128000
H          0.165000       5.901000      -0.535000
O          2.309000       6.221000       2.562000
H          2.757000       5.480000       2.092000
H          1.497000       6.368000       2.044000
O         -0.523000       3.527000      -3.206000
H         -0.879000       3.357000      -4.114000
H         -0.900000       4.352000      -2.963000
O         -2.157000      -4.323000       1.711000
H         -2.031000      -3.349000       1.812000
H         -1.761000      -4.766000       2.383000
O         -1.145000       2.905000       3.444000
H         -0.871000       3.409000       4.177000
H         -1.917000       2.347000       3.695000
O          4.262000      -3.067000       1.131000
H          4.550000      -3.542000       0.360000
H          3.705000      -3.486000       1.729000
O          0.320000       2.785000       0.913000
H          1.254000       2.934000       1.156000
H         -0.228000       2.729000       1.669000
O         -3.298000       3.944000      -0.271000
H         -4.164000       3.750000      -0.519000
H         -3.180000       4.288000       0.592000
O         -4.196000       1.234000      -2.343000
H         -3.693000       0.926000      -3.096000
H         -3.450000       1.276000      -1.698000
O         -3.821000       2.131000       3.570000
H         -4.158000       3.034000       3.631000
H         -4.481000       1.426000       3.714000
O          3.641000       1.792000       4.335000
H          4.317000       1.134000       4.083000
H          2.856000       1.287000       4.474000
O         -0.966000      -5.116000       4.025000
H         -0.871000      -5.889000       4.555000
H         -1.214000      -4.356000       4.553000
O         -3.932000      -1.384000      -0.380000
H         -4.360000      -1.876000       0.288000
H         -3.509000      -0.626000       0.097000
O         -4.564000      -2.535000      -2.853000
H         -4.394000      -2.118000      -2.025000
H         -4.759000      -3.447000      -2.485000
O          3.004000       1.894000      -0.787000
H          3.440000       1.044000      -0.874000
H          3.657000       2.612000      -1.014000
O          5.346000       1.872000       1.311000
H          5.197000       1.095000       1.883000
H          5.511000       1.508000       0.425000
O          4.267000      -0.809000      -0.350000
H          4.047000      -1.473000       0.236000
H          4.973000      -1.178000      -0.907000
O         -1.426000      -2.556000      -1.477000
H         -2.164000      -2.863000      -1.019000
H         -1.609000      -2.411000      -2.417000
O          5.073000       4.047000      -1.331000
H          4.909000       4.432000      -2.186000
H          5.180000       4.880000      -0.910000
O          3.148000       3.440000       1.862000
H          3.136000       3.000000       2.723000
H          3.919000       3.059000       1.465000
O          5.714000       1.225000      -2.114000
H          6.594000       1.038000      -1.865000
H          5.743000       1.974000      -2.811000
O         -6.787000      -0.010000       0.717000
H         -6.614000       0.040000      -0.239000
H         -7.755000      -0.246000       0.910000
O          3.545000      -3.046000      -3.618000
H          3.580000      -2.094000      -3.879000
H          2.668000      -3.302000      -3.589000
O         -2.695000       1.298000       0.849000
H         -2.916000       2.034000       0.266000
H         -3.255000       1.494000       1.616000
O         -6.603000      -0.289000      -2.140000
H         -6.624000      -1.177000      -2.182000
H         -5.671000       0.013000      -2.301000
O         -0.309000      -0.401000       0.326000
H         -1.118000       0.133000       0.430000
H         -0.534000      -1.030000      -0.378000
O         -1.039000      -5.909000      -1.965000
H         -0.571000      -5.204000      -2.401000
H         -0.328000      -6.458000      -1.453000
O          4.706000      -4.262000      -1.328000
H          4.222000      -3.948000      -2.142000
H          4.190000      -4.989000      -1.068000
O          0.256000      -0.184000      -3.718000
H         -0.104000       0.185000      -2.890000
H          1.032000      -0.704000      -3.488000
O         -5.501000      -2.850000       1.906000
H         -5.767000      -2.355000       2.688000
H         -4.760000      -3.337000       2.272000
O         -1.812000       5.402000       1.860000
H         -1.440000       4.593000       2.262000
H         -1.241000       5.634000       1.102000
O         -3.913000      -0.411000      -4.443000
H         -4.429000      -1.080000      -3.944000
H         -4.281000      -0.341000      -5.271000
O         -2.189000      -1.319000       2.442000
H         -1.863000      -1.448000       3.325000
H         -1.486000      -0.969000       1.931000
O         -1.244000      -2.275000      -4.634000
H         -2.212000      -2.105000      -4.610000
H         -0.848000      -1.556000      -4.170000
O          2.174000       0.200000       1.808000
H          2.376000       1.024000       1.365000
H          1.473000      -0.173000       1.276000
O         -6.084000       2.844000       0.474000
H         -6.432000       3.166000      -0.378000
H         -6.469000       2.036000       0.706000
O          0.906000      -1.751000       5.775000
H          0.868000      -0.844000       5.412000
H          1.817000      -1.968000       5.604000
O         -1.580000      -2.459000       4.980000
H         -0.719000      -2.369000       5.419000
H         -2.195000      -2.494000       5.697000
O         -0.276000       1.994000      -5.621000
H         -0.537000       1.765000      -6.482000
H          0.060000       1.161000      -5.223000
O         -0.928000       1.416000      -1.670000
H         -0.895000       2.195000      -2.191000
H         -0.669000       1.706000      -0.819000
O          3.527000      -0.165000      -3.734000
H          3.031000       0.728000      -3.655000
H          4.383000       0.007000      -3.412000
O         -6.603000       2.814000      -2.367000
H         -5.706000       2.417000      -2.419000
H         -7.250000       2.087000      -2.529000
O          2.350000      -5.529000      -1.428000
H          1.797000      -5.228000      -0.660000
H          2.069000      -5.108000      -2.240000
