84
Part[0, 2]Frag
C         -5.472000       1.015000      -1.587000
C          0.956000       4.166000       2.184000
O          7.212000       3.885000       1.251000
C         -0.533000       4.484000       1.997000
H          6.685000       4.609000       1.626000
C         -2.241000      -0.097000      -1.128000
N         -0.410000       2.243000      -0.886000
C         -3.073000      -1.187000      -0.864000
C          6.388000       2.996000       0.585000
H         -4.337000       6.927000      -2.116000
H          6.566000       0.125000      -1.166000
H          5.526000      -2.326000      -2.951000
H         -4.659000       4.701000      -1.980000
H         -3.064000       4.508000       1.151000
H         -5.061000       5.773000       1.447000
H         -6.366000       4.875000      -0.204000
O         -2.192000       4.642000      -1.885000
C         -4.385000       5.109000      -1.005000
N         -2.397000       4.524000       0.379000
C         -2.887000       4.725000      -0.867000
N         -4.506000       6.565000      -1.177000
C         -5.367000       4.476000       0.032000
O         -5.029000       4.785000       1.374000
H          0.743000      -1.629000      -0.701000
C         -4.896000       0.227000      -0.585000
C         -4.694000       0.777000       0.681000
C         -4.921000       2.131000       0.907000
N          1.229000       2.950000       2.733000
H         -2.673000       0.873000      -1.341000
C          1.478000       0.666000      -0.729000
C         -5.361000       2.959000      -0.133000
C         -5.702000       2.374000      -1.359000
C          2.728000      -4.211000      -1.707000
C          0.758000      -3.949000      -0.327000
C          1.341000      -4.199000      -1.570000
C          2.965000      -3.792000       0.659000
C          1.575000      -3.776000       0.797000
H          3.177000      -4.405000      -2.674000
C          3.553000      -3.977000      -0.597000
H          5.515000      -4.388000       0.158000
H          0.696000      -4.355000      -2.431000
O          5.398000      -4.715000      -1.889000
N          2.487000       0.481000      -1.622000
C         -1.010000       4.111000       0.582000
O         -1.098000       1.784000       1.262000
C          4.373000      -0.813000      -2.358000
O          1.831000       4.972000       1.861000
N          5.242000      -1.836000      -2.106000
O          4.048000      -0.535000      -3.511000
H          0.528000       2.218000       2.658000
H          2.191000       2.635000       2.675000
C         -0.854000       2.579000       0.361000
C         -0.860000      -0.243000      -1.061000
C          0.076000       0.933000      -1.336000
O          1.661000       0.620000       0.484000
H          2.338000       0.487000      -2.627000
H          6.357000      -4.587000      -2.052000
H         -0.659000       5.561000       2.135000
H         -1.138000       3.951000       2.737000
H         -0.406000       2.992000      -1.570000
H         -0.406000       4.651000      -0.153000
H          3.580000      -3.659000       1.546000
Cl         0.868000      -3.511000       2.373000
C         -1.152000      -2.595000      -0.545000
O         -4.455000      -1.055000      -0.857000
C          5.022000       3.248000       0.459000
C          4.195000       2.319000      -0.164000
C         -2.550000      -2.463000      -0.588000
C          6.976000       1.844000       0.031000
H         -4.708000       2.559000       1.879000
H         -4.272000       0.149000       1.459000
C          4.730000       1.148000      -0.715000
C          6.115000       0.971000      -0.661000
O         -0.620000      -3.837000      -0.226000
Cl        -5.817000       0.332000      -3.161000
H         -6.106000       2.971000      -2.173000
H          3.620000      -0.625000      -0.321000
C          3.802000       0.019000      -1.191000
O         -4.936000       7.389000       0.936000
C         -0.326000      -1.497000      -0.780000
H          3.132000       2.514000      -0.197000
H          0.181000       1.040000      -2.423000
C          5.063000      -3.952000      -0.749000
H          4.584000       4.150000       0.883000
