248
Part[1]Frag
O          15.924000      21.178000     -6.314000
N          13.723000      20.842000     -6.627000
N          14.672000      22.975000     -6.637000
C          14.802000      21.628000     -6.529000
C          16.118000      24.767000     -7.578000
C          15.856000      23.836000     -6.414000
C          16.942000      25.827000     -6.848000
O          18.340000      25.511000     -6.701000
C          8.162000       17.628000      10.598000
C          12.515000      21.373000     -6.836000
N          11.410000      20.574000     -6.872000
N          11.021000      17.903000      8.565000
C          9.644000       18.209000      9.019000
C          8.532000       17.527000      8.223000
O          6.251000       18.034000      9.162000
C          13.633000      17.372000      7.882000
N          13.119000      18.641000      7.852000
O          11.383000      20.077000      8.143000
C          11.822000      18.923000      8.176000
C          12.781000      16.325000      8.235000
O          14.830000      17.222000      7.619000
O          19.302000      24.412000     -8.763000
O          18.763000      26.851000     -8.758000
C          8.717000       25.240000      0.998000
O          20.704000      25.976000     -7.408000
P          19.331000      25.774000     -7.925000
C          19.253000      14.139000     -2.066000
O          17.592000      14.409000     -3.622000
O          20.953000      26.858000      3.426000
O          18.396000      26.939000      3.241000
N          14.482000      20.557000      3.593000
C          14.597000      21.801000      3.118000
N          15.700000      22.472000      2.783000
C          16.791000      21.706000      3.002000
C          14.179000      15.499000     -5.721000
N          15.329000      16.161000     -5.986000
O          18.665000      9.516000      -3.729000
C          12.348000      22.744000     -6.978000
O          17.957000      11.865000     -3.208000
O          16.427000      9.940000      -2.633000
C          18.936000      13.958000     -3.536000
C          18.963000      12.531000     -3.996000
C          19.748000      22.167000     -9.299000
O          13.051000      10.094000     -6.177000
O          10.644000      10.010000     -5.494000
O          11.666000      8.032000      -6.664000
P          11.602000      9.510000      -6.502000
C          15.445000      10.806000     -5.189000
O          8.239000       15.387000      11.076000
C          15.113000      10.992000     -6.657000
C          14.100000      10.021000     -7.156000
O          9.543000       17.580000      10.279000
C          7.461000       17.284000      9.296000
C          14.937000      12.100000     -4.529000
O          16.836000      10.560000     -5.013000
N          12.205000      16.017000     -1.553000
C          14.164000      14.689000     -1.652000
N          14.209000      16.983000     -2.264000
C          13.536000      15.919000     -1.825000
C          15.507000      16.886000     -2.558000
O          16.162000      17.846000     -2.957000
C          17.545000      15.602000     -2.872000
N          16.145000      15.696000     -2.428000
O          20.659000      14.219000     -1.858000
C          18.520000      15.417000     -1.728000
N          12.982000      21.573000     -3.267000
C          15.606000      20.268000     -0.027000
N          14.712000      19.349000      0.418000
C          13.498000      20.365000     -3.082000
N          12.729000      19.299000     -2.720000
N          14.834000      20.169000     -3.237000
C          10.818000      20.588000     -2.718000
N          9.541000       21.009000     -2.613000
O          10.813000      18.252000     -2.179000
C          11.376000      19.292000     -2.511000
C          11.429000      24.028000     -3.587000
C          10.414000      24.962000     -4.186000
C          9.616000       22.315000     -2.910000
N          10.890000      22.713000     -3.200000
C          15.058000      13.086000     -5.671000
N          10.575000      14.487000     -8.944000
C          12.710000      13.957000     -5.259000
N          12.016000      15.103000     -5.269000
C          12.937000      16.041000     -5.558000
C          12.761000      17.451000     -5.710000
O          11.723000      18.111000     -5.630000
C          11.559000      15.430000     -9.006000
C          15.171000      17.485000     -6.107000
N          16.244000      18.292000     -6.325000
C          18.363000      17.062000      1.039000
C          10.254000      12.437000     -7.607000
O          12.796000      28.572000     -5.049000
C          10.896000      13.044000     -8.837000
C          13.269000      14.902000      8.236000
C          9.980000       17.088000     -9.334000
C          11.465000      16.616000      8.594000
C          20.109000      23.284000     -8.359000
N          9.698000       18.395000     -9.589000
O          12.725000      15.066000     -8.932000
O          13.633000      28.628000      6.885000
O          13.792000      30.696000      5.582000
O          15.852000      29.836000      6.749000
C          15.367000      23.291000      6.174000
P          14.604000      29.545000      6.020000
C          13.636000      22.041000      6.708000
N          14.019000      23.234000      6.265000
N          16.483000      19.994000      7.243000
N          14.389000      20.994000      7.036000
C          22.101000      18.959000      0.293000
O          22.592000      20.293000      0.097000
C          15.509000      14.584000     -1.979000
P          21.304000      14.529000     -0.436000
O          22.696000      14.087000     -0.524000
O          20.488000      13.954000      0.650000
O          21.306000      16.117000     -0.363000
C          22.177000      16.876000     -1.212000
C          21.739000      18.292000     -1.021000
O          20.305000      18.225000     -1.048000
C          8.252000       10.968000     -9.854000
O          7.458000       11.884000     -9.070000
O          10.144000      12.455000     -9.908000
C          9.714000       11.141000     -9.512000
N          15.259000      16.717000     -9.406000
C          15.042000      18.043000     -9.605000
C          15.660000      20.156000     -10.027000
N          16.061000      18.885000     -9.792000
O          11.293000      10.221000     -7.904000
C          10.103000      10.989000     -8.055000
O          9.007000       14.369000      13.181000
N          15.448000      18.537000      4.242000
C          15.577000      19.817000      3.786000
C          18.847000      21.020000      3.133000
N          18.079000      22.095000      2.758000
C          16.842000      20.424000      3.488000
N          18.114000      19.984000      3.584000
O          19.732000      26.010000      1.411000
C          20.347000      24.743000      1.633000
C          18.497000      23.393000      2.145000
C          19.752000      23.945000      2.791000
O          5.458000       16.668000      7.160000
C          8.939000       16.162000     -9.274000
C          9.265000       14.824000     -9.080000
C          9.803000       19.775000      1.177000
N          11.461000      18.075000      1.089000
C          11.141000      19.395000      1.046000
N          12.106000      20.297000      0.873000
O          12.691000      22.447000      0.670000
C          11.814000      21.603000      0.840000
N          10.524000      22.022000      1.015000
C          10.241000      23.483000      1.157000
C          9.126000       23.965000      0.253000
N          11.246000      16.714000     -9.193000
P          19.803000      27.141000      2.526000
O          19.796000      28.478000      1.888000
O          6.086000       19.118000      6.927000
O          9.496000       28.717000     -0.258000
O          7.632000       27.106000     -0.947000
C          9.499000       21.133000      1.167000
P          9.055000       27.333000     -0.581000
C          11.972000      26.090000     -2.802000
O          11.802000      24.724000     -2.404000
O          9.954000       26.765000     -1.771000
N          18.513000      18.299000      0.468000
C          11.327000      26.178000     -4.188000
O          12.311000      26.096000     -5.214000
C          19.765000      18.985000      0.046000
C          20.820000      18.829000      1.121000
C          13.470000      23.558000     -6.869000
O          14.082000      17.378000      1.280000
C          11.382000      26.940000     -1.720000
C          14.996000      18.090000      0.882000
O          9.638000       23.627000      2.448000
C          16.400000      17.832000      0.868000
C          19.921000      22.404000     -10.815000
O          18.350000      21.969000     -9.139000
O          5.010000       21.905000      2.470000
O          6.926000       23.547000      2.611000
C          7.636000       24.627000      3.249000
C          8.897000       24.853000      2.457000
C          10.261000      16.140000      4.896000
C          9.545000       18.548000      4.904000
P          5.531000       23.071000      3.209000
O          4.648000       24.244000      3.269000
P          17.478000      10.380000     -3.569000
N          14.036000      14.140000     -5.536000
C          17.203000      27.028000      2.452000
N          17.080000      16.744000      1.281000
C          16.035000      26.958000      3.388000
C          7.513000       20.718000      4.139000
O          5.967000       22.667000      4.696000
N          9.823000       19.876000      4.759000
C          8.736000       20.855000      5.034000
O          11.324000      21.516000      4.389000
C          11.086000      20.316000      4.494000
C          11.876000      18.060000      4.551000
N          12.094000      19.403000      4.412000
C          10.569000      17.611000      4.765000
O          12.858000      17.317000      4.503000
N          13.952000      18.079000     -5.973000
O          12.091000      19.967000     -9.857000
N          13.750000      18.466000     -9.625000
C          15.663000      22.289000     -10.478000
N          14.368000      21.958000     -10.390000
C          14.388000      20.640000     -10.102000
C          13.301000      19.742000     -9.856000
O          20.985000      21.635000     -11.401000
C          18.535000      22.062000     -11.381000
C          17.965000      21.200000     -10.269000
N          16.493000      21.220000     -10.265000
O          6.668000       13.960000      12.342000
C          17.236000      18.794000      0.384000
P          22.904000      21.238000      1.339000
N          15.134000      21.493000     -0.382000
N          16.912000      20.017000     -0.072000
O          21.577000      22.107000      1.390000
C          21.216000      22.833000      0.200000
O          23.994000      22.183000      1.025000
O          23.104000      20.390000      2.538000
C          20.101000      23.788000      0.484000
O          18.913000      23.054000      0.816000
C          6.146000       20.478000      7.418000
C          6.995000       21.229000      6.438000
P          12.763000      27.421000     -5.980000
C          11.656000      21.601000     -3.061000
P          5.384000       17.990000      7.824000
O          4.025000       18.444000      8.180000
C          15.275000      27.108000     -5.318000
O          14.272000      27.086000     -6.366000
O          15.443000      24.754000     -5.397000
C          16.222000      25.946000     -5.510000
O          8.188000       20.458000      6.284000
C          6.418000       21.332000      5.029000
O          11.886000      27.542000     -7.164000
O          9.470000       26.414000      0.667000
P          8.081000       14.050000      11.915000
N          17.539000      22.706000      6.276000
C          17.411000      23.967000      5.830000
N          16.104000      24.373000      5.755000
C          15.561000      25.655000      5.243000
C          16.368000      26.844000      5.724000
O          14.890000      28.608000      4.757000
C          16.101000      27.861000      4.615000
O          15.856000      25.612000      3.850000
O          8.600000       12.894000      11.137000
C          16.266000      22.309000      6.480000
C          7.907000       16.635000      11.686000
C          15.715000      21.073000      6.933000
O          14.556000      12.300000     -6.755000
