10
Part[0, 1]Frag
O          6.668000       13.960000      12.342000
P          8.081000       14.050000      11.915000
O          9.007000       14.369000      13.181000
O          8.600000       12.894000      11.137000
O          8.239000       15.387000      11.076000
O          13.633000      28.628000      6.885000
O          13.792000      30.696000      5.582000
O          15.852000      29.836000      6.749000
P          14.604000      29.545000      6.020000
O          14.890000      28.608000      4.757000
