15
Part[0, 1, 3]Frag
H         -1.863000      -1.448000       3.325000
H         -1.486000      -0.969000       1.931000
O         -0.928000       1.416000      -1.670000
O         -4.196000       1.234000      -2.343000
O         -0.309000      -0.401000       0.326000
H         -0.534000      -1.030000      -0.378000
H         -3.255000       1.494000       1.616000
H         -2.916000       2.034000       0.266000
O         -2.695000       1.298000       0.849000
H         -3.693000       0.926000      -3.096000
H         -3.450000       1.276000      -1.698000
O         -2.189000      -1.319000       2.442000
H         -1.118000       0.133000       0.430000
H         -0.895000       2.195000      -2.191000
H         -0.669000       1.706000      -0.819000
