69
Part[1]Frag
H         -6.469000       2.036000       0.706000
H         -0.719000      -2.369000       5.419000
O         -1.580000      -2.459000       4.980000
H         -2.195000      -2.494000       5.697000
O         -2.695000       1.298000       0.849000
H         -2.916000       2.034000       0.266000
O         -6.603000      -0.289000      -2.140000
H         -4.760000      -3.337000       2.272000
H         -5.767000      -2.355000       2.688000
O         -5.501000      -2.850000       1.906000
H         -4.429000      -1.080000      -3.944000
O         -3.913000      -0.411000      -4.443000
H         -3.180000       4.288000       0.592000
O         -4.196000       1.234000      -2.343000
H         -3.693000       0.926000      -3.096000
H         -3.450000       1.276000      -1.698000
O         -2.189000      -1.319000       2.442000
H         -4.281000      -0.341000      -5.271000
H         -1.118000       0.133000       0.430000
H         -4.360000      -1.876000       0.288000
H         -4.759000      -3.447000      -2.485000
H         -3.509000      -0.626000       0.097000
H          0.124000      -3.428000      -3.719000
H          0.792000      -2.684000      -2.600000
H         -7.755000      -0.246000       0.910000
H         -2.164000      -2.863000      -1.019000
O         -4.564000      -2.535000      -2.853000
O          0.474000      -4.214000       0.227000
H         -0.394000      -4.564000       0.511000
O         -1.426000      -2.556000      -1.477000
O         -3.511000      -4.653000      -1.006000
H         -3.264000      -4.868000      -0.138000
H         -2.875000      -5.102000      -1.555000
O         -3.932000      -1.384000      -0.380000
H         -0.848000      -1.556000      -4.170000
O         -1.244000      -2.275000      -4.634000
H         -2.212000      -2.105000      -4.610000
H         -1.863000      -1.448000       3.325000
H         -1.486000      -0.969000       1.931000
H         -4.394000      -2.118000      -2.025000
O         -6.084000       2.844000       0.474000
H         -6.432000       3.166000      -0.378000
H         -0.534000      -1.030000      -0.378000
O         -1.039000      -5.909000      -1.965000
H         -0.571000      -5.204000      -2.401000
H         -0.328000      -6.458000      -1.453000
H         -7.250000       2.087000      -2.529000
O         -6.603000       2.814000      -2.367000
H         -5.706000       2.417000      -2.419000
O         -0.928000       1.416000      -1.670000
H         -0.895000       2.195000      -2.191000
H         -0.669000       1.706000      -0.819000
H         -1.609000      -2.411000      -2.417000
O         -0.309000      -0.401000       0.326000
H         -3.255000       1.494000       1.616000
O          0.667000      -3.568000      -2.888000
H         -1.761000      -4.766000       2.383000
O         -4.993000      -0.195000       3.103000
H          0.503000      -3.771000      -0.582000
H         -5.671000       0.013000      -2.301000
H         -2.031000      -3.349000       1.812000
O         -2.157000      -4.323000       1.711000
H         -5.671000      -0.271000       2.460000
H         -6.614000       0.040000      -0.239000
H         -6.624000      -1.177000      -2.182000
O         -6.787000      -0.010000       0.717000
H         -4.124000      -0.473000       2.688000
O         -3.298000       3.944000      -0.271000
H         -4.164000       3.750000      -0.519000
